Circuit: * C:\Users\meyer\OneDrive\Desktop\3RD YEAR\E-DESIGN 344\Assignment 4\Assessment_4_LTspice_Template\Assessment_4_LTspice_Template\E344_22590439_A4.asc

Direct Newton iteration for .op point succeeded.

Date: Sun Sep 05 23:09:23 2021
Total elapsed time: 0.212 seconds.

tnom = 27
temp = 27
method = modified trap
totiter = 64063
traniter = 64060
tranpoints = 32031
accept = 32031
rejected = 0
matrix size = 6
fillins = 2
solver = Normal
Matrix Compiler1: 200 bytes object code size  0.0/0.0/[0.0]
Matrix Compiler2: 394 bytes object code size  0.1/0.1/[0.0]

